Version 4
SHEET 1 1152 680
WIRE 912 -80 848 -80
WIRE 1024 -80 992 -80
WIRE -48 -16 -64 -16
WIRE 80 -16 48 -16
WIRE 352 16 304 16
WIRE 464 16 432 16
WIRE 672 32 624 32
WIRE 848 32 848 -80
WIRE 848 32 768 32
WIRE 896 32 848 32
WIRE 1024 48 1024 -80
WIRE 1024 48 960 48
WIRE 1072 48 1024 48
WIRE 896 64 848 64
WIRE -144 96 -192 96
WIRE -64 96 -64 -16
WIRE -32 96 -64 96
WIRE 848 96 848 64
WIRE 80 112 80 -16
WIRE 80 112 32 112
WIRE 176 112 80 112
WIRE 272 112 256 112
WIRE -32 128 -80 128
WIRE 272 144 272 112
WIRE 304 144 304 16
WIRE 304 144 272 144
WIRE 352 144 304 144
WIRE 176 160 128 160
WIRE 272 160 272 144
WIRE 272 160 256 160
WIRE 464 160 464 16
WIRE 464 160 416 160
WIRE 496 160 464 160
WIRE -192 176 -192 96
WIRE -192 176 -320 176
WIRE -80 176 -80 128
WIRE 352 176 304 176
WIRE 624 176 624 32
WIRE 1072 176 624 176
WIRE -48 192 -64 192
WIRE 96 192 48 192
WIRE 304 240 304 176
WIRE 848 256 784 256
WIRE 976 256 928 256
WIRE -160 272 -192 272
WIRE 496 288 496 160
WIRE 576 288 496 288
WIRE 720 288 656 288
WIRE -80 304 -80 272
WIRE -64 304 -64 192
WIRE -64 304 -80 304
WIRE 0 304 -64 304
WIRE 96 320 96 192
WIRE 96 320 64 320
WIRE 128 320 128 160
WIRE 128 320 96 320
WIRE 0 336 -80 336
WIRE -320 352 -320 256
WIRE -80 368 -80 336
WIRE 240 368 224 368
WIRE 416 368 336 368
WIRE 720 368 720 288
WIRE 784 368 784 256
WIRE 784 368 720 368
WIRE 864 368 784 368
WIRE -192 384 -192 272
WIRE -192 384 -320 384
WIRE 976 384 976 256
WIRE 976 384 928 384
WIRE 1040 384 976 384
WIRE 1072 384 1072 176
WIRE 1072 384 1040 384
WIRE 576 400 496 400
WIRE 720 400 720 368
WIRE 720 400 656 400
WIRE 864 400 816 400
WIRE -320 432 -320 384
WIRE 816 480 816 400
WIRE 112 496 48 496
WIRE 224 496 224 368
WIRE 224 496 192 496
WIRE 288 496 224 496
WIRE 416 512 416 368
WIRE 416 512 352 512
WIRE 464 512 416 512
WIRE 496 512 496 400
WIRE 496 512 464 512
WIRE -320 528 -320 512
WIRE 288 528 208 528
WIRE -320 544 -320 528
WIRE 48 544 48 496
WIRE 208 560 208 528
FLAG -80 368 0
FLAG -80 176 0
FLAG 304 240 0
FLAG -320 352 0
FLAG -320 528 0
FLAG 0 48 0
FLAG 0 256 0
FLAG 208 560 0
FLAG 816 480 0
FLAG 48 624 0
FLAG 848 96 0
FLAG 720 -32 0
FLAG 288 432 0
FLAG 0 96 v+
FLAG 32 288 v+
FLAG 384 128 v+
FLAG 320 480 v+
FLAG 896 352 v+
FLAG 928 16 v+
FLAG 0 144 v-
FLAG 32 352 v-
FLAG 384 192 v-
FLAG 320 544 v-
FLAG 896 416 v-
FLAG 928 80 v-
FLAG 1072 48 Vout
FLAG 496 160 Va+Vb
FLAG 1040 384 Va+Vb+Vr
FLAG 464 512 Vr
SYMBOL Opamps\\UniversalOpamp2 0 112 R0
SYMATTR InstName U1
SYMBOL res -48 80 R90
WINDOW 0 0 56 VBottom 2
WINDOW 3 32 56 VTop 2
SYMATTR InstName R1
SYMATTR Value 1K
SYMBOL res -64 256 R90
WINDOW 0 0 56 VBottom 2
WINDOW 3 32 56 VTop 2
SYMATTR InstName R2
SYMATTR Value 1K
SYMBOL Opamps\\UniversalOpamp2 32 320 R0
SYMATTR InstName U2
SYMBOL res 272 96 R90
WINDOW 0 0 56 VBottom 2
WINDOW 3 32 56 VTop 2
SYMATTR InstName R3
SYMATTR Value 1K
SYMBOL res 272 144 R90
WINDOW 0 0 56 VBottom 2
WINDOW 3 32 56 VTop 2
SYMATTR InstName R4
SYMATTR Value 1K
SYMBOL Opamps\\UniversalOpamp2 384 160 R0
SYMATTR InstName U3
SYMBOL res 448 0 R90
WINDOW 0 0 56 VBottom 2
WINDOW 3 32 56 VTop 2
SYMATTR InstName R5
SYMATTR Value 1K
SYMBOL voltage -320 160 R0
WINDOW 123 0 0 Left 2
WINDOW 39 0 0 Left 2
SYMATTR InstName Va
SYMATTR Value 2
SYMBOL voltage -320 416 R0
WINDOW 123 0 0 Left 2
WINDOW 39 0 0 Left 2
SYMATTR InstName Vb
SYMATTR Value 2
SYMBOL npn2 -48 48 R270
SYMATTR InstName Q1
SYMATTR Value 2N2222
SYMBOL npn2 -48 256 R270
SYMATTR InstName Q2
SYMATTR Value 2N2222
SYMBOL npn2 240 432 R270
SYMATTR InstName Q3
SYMATTR Value 2N2222
SYMBOL Opamps\\UniversalOpamp2 320 512 R0
SYMATTR InstName U4
SYMBOL res 208 480 R90
WINDOW 0 0 56 VBottom 2
WINDOW 3 32 56 VTop 2
SYMATTR InstName R6
SYMATTR Value 1K
SYMBOL res 672 384 R90
WINDOW 0 0 56 VBottom 2
WINDOW 3 32 56 VTop 2
SYMATTR InstName R8
SYMATTR Value 1K
SYMBOL res 672 272 R90
WINDOW 0 0 56 VBottom 2
WINDOW 3 32 56 VTop 2
SYMATTR InstName R7
SYMATTR Value 1K
SYMBOL Opamps\\UniversalOpamp2 896 384 R0
SYMATTR InstName U5
SYMBOL res 944 240 R90
WINDOW 0 0 56 VBottom 2
WINDOW 3 32 56 VTop 2
SYMATTR InstName R9
SYMATTR Value 1K
SYMBOL voltage 48 528 R0
WINDOW 123 0 0 Left 2
WINDOW 39 0 0 Left 2
SYMATTR InstName Vr
SYMATTR Value 1
SYMBOL pnp 768 -32 R90
SYMATTR InstName Q4
SYMATTR Value 2N2907
SYMBOL Opamps\\UniversalOpamp2 928 48 R0
SYMATTR InstName U6
SYMBOL res 1008 -96 R90
WINDOW 0 0 56 VBottom 2
WINDOW 3 32 56 VTop 2
SYMATTR InstName R10
SYMATTR Value 1K
TEXT -212 408 Left 2 !.tran 0 1s 0s
